Version 4
SHEET 1 928 680
WIRE 480 -208 -320 -208
WIRE 336 -160 -80 -160
WIRE 160 -80 -128 -80
WIRE 336 -80 336 -160
WIRE 336 -80 272 -80
WIRE 384 -80 336 -80
WIRE 160 -16 48 -16
WIRE -224 32 -224 -80
WIRE -80 48 -80 -160
WIRE -80 48 -144 48
WIRE -80 64 -80 48
WIRE 144 80 32 80
WIRE -224 96 -224 32
WIRE -80 96 -224 96
WIRE -320 144 -320 -208
WIRE -224 144 -224 96
WIRE -224 144 -320 144
WIRE -112 144 -224 144
WIRE 32 144 32 80
WIRE 64 144 32 144
WIRE 160 160 128 160
WIRE -224 176 -224 144
WIRE -144 176 -144 48
WIRE -112 176 -144 176
WIRE 16 176 16 80
WIRE 64 176 16 176
WIRE 480 176 480 -208
WIRE -16 192 -16 160
WIRE 16 192 -16 192
WIRE 656 192 576 192
WIRE 896 192 752 192
WIRE 384 208 384 -80
WIRE 480 208 384 208
WIRE -112 224 -176 224
WIRE 48 224 48 -16
WIRE 160 224 48 224
WIRE 304 224 272 224
WIRE -176 240 -176 224
WIRE -128 240 -176 240
WIRE 656 240 656 192
WIRE -176 256 -176 240
WIRE 752 256 752 192
WIRE 16 272 16 192
WIRE 304 272 304 224
WIRE 480 272 304 272
WIRE 144 288 144 80
WIRE 144 288 112 288
WIRE 656 288 656 272
WIRE 656 288 576 288
WIRE -16 304 -16 240
WIRE 16 304 -16 304
WIRE -112 336 -112 256
WIRE 304 336 304 272
WIRE 304 336 -112 336
WIRE 48 352 48 224
WIRE -224 464 -224 256
WIRE -176 464 -176 336
WIRE -176 464 -224 464
WIRE 48 464 48 432
WIRE 48 464 -176 464
WIRE 48 496 48 464
WIRE -128 544 -128 240
WIRE 480 544 480 304
WIRE 480 544 -128 544
FLAG 896 192 s
FLAG 48 496 0
FLAG -224 32 e
SYMBOL voltage 48 336 R0
WINDOW 123 0 0 Left 0
WINDOW 39 0 0 Left 0
WINDOW 3 -695 52 Left 2
SYMATTR Value PULSE(0V 5V 0.s 0.00001s 0.00001s 0.001s 0.002s 5)
SYMATTR InstName CLK
SYMBOL voltage -224 160 R0
WINDOW 123 0 0 Left 0
WINDOW 39 0 0 Left 0
WINDOW 3 -689 54 Left 2
SYMATTR Value PULSE(0V 5V 0.002s 0.00001s 0.00001s 0.004s 0.01s 1)
SYMATTR InstName E
SYMBOL eea_symb\\D_FlipFlop 208 -64 R0
SYMATTR InstName U1
SYMBOL eea_symb\\D_FlipFlop 208 176 R0
SYMATTR InstName U0
SYMBOL eea_symb\\not -192 -128 R0
SYMATTR InstName U6
SYMBOL eea_symb\\and2 16 64 R0
SYMATTR InstName U8
SYMBOL eea_symb\\or2 96 96 R0
SYMATTR InstName U4
SYMBOL eea_symb\\and2 -16 224 R0
SYMATTR InstName U7
SYMBOL eea_symb\\and2 -16 144 R0
SYMATTR InstName U9
SYMBOL voltage -176 240 R0
WINDOW 123 0 0 Left 0
WINDOW 39 0 0 Left 0
SYMATTR InstName V1
SYMATTR Value 5
SYMBOL eea_symb\\and2 576 176 R0
SYMATTR InstName U2
SYMBOL eea_symb\\and2 576 272 R0
SYMATTR InstName U3
SYMBOL eea_symb\\and2 752 240 R0
SYMATTR InstName U5
SYMBOL eea_symb\\and2 112 272 R0
SYMATTR InstName U10
TEXT 416 48 Left 2 !.inc eea.lib
TEXT 480 488 Left 2 !.tran 0.01s
