Version 4
SHEET 1 928 680
WIRE -144 -224 -208 -224
WIRE 384 -224 -144 -224
WIRE -144 -112 -144 -224
WIRE 48 -96 -48 -96
WIRE 160 -80 112 -80
WIRE 384 -80 384 -224
WIRE 384 -80 272 -80
WIRE 48 -64 -32 -64
WIRE -32 -16 -32 -64
WIRE -32 -16 -304 -16
WIRE 160 -16 48 -16
WIRE -400 48 -400 -16
WIRE -144 64 -144 -80
WIRE 336 64 -144 64
WIRE 384 112 384 -80
WIRE 432 112 384 112
WIRE 672 128 528 128
WIRE -32 144 -32 -16
WIRE 64 144 -32 144
WIRE 432 144 384 144
WIRE -208 160 -208 -224
WIRE -144 160 -208 160
WIRE 160 160 128 160
WIRE 336 160 336 64
WIRE 336 160 272 160
WIRE -400 176 -400 48
WIRE 64 176 -48 176
WIRE -400 192 -400 176
WIRE -144 192 -208 192
WIRE 48 224 48 -16
WIRE 160 224 48 224
WIRE 336 224 272 224
WIRE 384 224 384 144
WIRE 384 224 336 224
WIRE -208 288 -208 192
WIRE 336 288 336 224
WIRE 336 288 -208 288
WIRE 48 336 48 224
WIRE 48 352 48 336
WIRE -400 464 -400 256
WIRE -48 464 -48 432
WIRE -48 464 -400 464
WIRE 48 464 48 432
WIRE 48 464 -48 464
WIRE 48 496 48 464
FLAG 672 128 s
FLAG 48 496 0
FLAG -400 48 e
FLAG 48 336 clk
SYMBOL voltage 48 336 R0
WINDOW 123 0 0 Left 0
WINDOW 39 0 0 Left 0
WINDOW 3 49 59 Left 2
SYMATTR Value PULSE(0V 5V 0.s 0.00001s 0.00001s 0.001s 0.002s 5)
SYMATTR InstName CLK
SYMBOL voltage -400 160 R0
WINDOW 123 0 0 Left 0
WINDOW 39 0 0 Left 0
WINDOW 3 -110 101 Left 2
SYMATTR Value PULSE(0V 5V 0.002s 0.00001s 0.00001s 0.005s 0.01s 1)
SYMATTR InstName E
SYMBOL eea_symb\\D_FlipFlop 208 -64 R0
SYMATTR InstName E1
SYMBOL eea_symb\\D_FlipFlop 208 176 R0
SYMATTR InstName E0
SYMBOL voltage -48 336 R0
WINDOW 123 0 0 Left 0
WINDOW 39 0 0 Left 0
SYMATTR InstName V1
SYMATTR Value 5
SYMBOL eea_symb\\and2 -48 -112 R0
SYMATTR InstName U2
SYMBOL eea_symb\\not -368 -64 R0
SYMATTR InstName U3
SYMBOL eea_symb\\or2 80 -144 R0
SYMATTR InstName U4
SYMBOL eea_symb\\or2 96 96 R0
SYMATTR InstName U1
SYMBOL eea_symb\\and2 -48 160 R0
SYMATTR InstName U5
SYMBOL eea_symb\\and2 528 112 R0
SYMATTR InstName U7
TEXT 488 -128 Left 2 !.inc eea.lib
TEXT 480 -200 Left 2 !.tran 0.01s
